<?xml version="1.0" encoding="UTF-8"?>

<!-- generated on 2023-01-23 14:45:57 by Eclipse SUMO netedit Version 1.15.0
<configuration xmlns:xsi="http://www.w3.org/2001/XMLSchema-instance" xsi:noNamespaceSchemaLocation="http://sumo.dlr.de/xsd/netconvertConfiguration.xsd">

    <input>
        <sumo-net-file value="D:\tese\example\demo.net.xml"/>
    </input>

    <output>
        <output-file value="D:\tese\example\demo.net.xml"/>
    </output>

    <processing>
        <geometry.min-radius.fix.railways value="false"/>
        <geometry.max-grade.fix value="false"/>
        <offset.disable-normalization value="true"/>
        <lefthand value="0"/>
    </processing>

    <junctions>
        <no-turnarounds value="true"/>
        <junctions.corner-detail value="5"/>
        <junctions.limit-turn-speed value="5.50"/>
        <rectangular-lane-cut value="0"/>
    </junctions>

    <pedestrian>
        <walkingareas value="0"/>
    </pedestrian>

</configuration>
-->

<net version="1.9" junctionCornerDetail="5" limitTurnSpeed="5.50" xmlns:xsi="http://www.w3.org/2001/XMLSchema-instance" xsi:noNamespaceSchemaLocation="http://sumo.dlr.de/xsd/net_file.xsd">

    <location netOffset="0.00,0.00" convBoundary="-98.44,-155.24,175.56,74.26" origBoundary="-10000000000.00,-10000000000.00,10000000000.00,10000000000.00" projParameter="!"/>

    <edge id=":J10_0" function="internal">
        <lane id=":J10_0_0" index="0" speed="4.05" length="1.57" shape="-18.78,-147.03 -19.18,-147.01 -19.54,-146.89 -19.86,-146.68 -20.13,-146.38"/>
        <lane id=":J10_0_1" index="1" speed="6.36" length="4.70" shape="-18.65,-150.23 -19.86,-150.15 -20.94,-149.80 -21.89,-149.17 -22.71,-148.28"/>
        <lane id=":J10_0_2" index="2" speed="8.04" length="7.84" shape="-18.51,-153.43 -20.53,-153.29 -22.33,-152.70 -23.92,-151.67 -25.29,-150.18"/>
    </edge>
    <edge id=":J4_0" function="internal">
        <lane id=":J4_0_0" index="0" speed="5.60" length="9.32" shape="-78.94,-66.48 -80.32,-63.99 -80.30,-62.18 -78.89,-61.03 -76.09,-60.54"/>
        <lane id=":J4_0_1" index="1" speed="6.56" length="13.37" shape="-78.94,-66.48 -81.18,-62.63 -81.48,-59.82 -79.83,-58.06 -76.23,-57.35"/>
        <lane id=":J4_0_2" index="2" speed="7.41" length="17.45" shape="-78.94,-66.48 -82.05,-61.27 -82.66,-57.47 -80.76,-55.10 -76.36,-54.15"/>
    </edge>
    <edge id=":J4_3" function="internal">
        <lane id=":J4_3_0" index="0" speed="11.14" length="19.85" shape="-78.94,-66.48 -83.11,-60.33 -85.73,-55.32 -86.79,-51.46 -86.28,-48.74"/>
        <lane id=":J4_3_1" index="1" speed="12.10" length="23.52" shape="-81.52,-68.38 -86.17,-61.36 -88.98,-55.47 -89.93,-50.72 -89.03,-47.10"/>
        <lane id=":J4_3_2" index="2" speed="12.99" length="27.22" shape="-84.09,-70.27 -89.23,-62.39 -92.23,-55.63 -93.08,-49.98 -91.78,-45.46"/>
    </edge>
    <edge id=":J5_0" function="internal">
        <lane id=":J5_0_0" index="0" speed="4.26" length="3.66" shape="-39.77,29.03 -39.58,29.33 -39.41,29.52 -39.19,29.64 -38.85,29.75"/>
        <lane id=":J5_0_1" index="1" speed="6.76" length="3.66" shape="-42.52,30.67 -41.94,31.58 -41.42,32.13 -40.76,32.49 -39.74,32.82"/>
        <lane id=":J5_0_2" index="2" speed="8.55" length="3.66" shape="-45.27,32.32 -44.30,33.82 -43.44,34.74 -42.33,35.34 -40.63,35.89"/>
    </edge>
    <edge id=":J6_0" function="internal">
        <lane id=":J6_0_0" index="0" speed="4.05" length="1.58" shape="83.40,65.14 83.80,65.21 84.18,65.18 84.54,65.05 84.88,64.82"/>
        <lane id=":J6_0_1" index="1" speed="6.36" length="4.74" shape="82.51,68.21 83.72,68.42 84.86,68.34 85.94,67.95 86.95,67.26"/>
        <lane id=":J6_0_2" index="2" speed="8.03" length="7.90" shape="81.62,71.29 83.63,71.64 85.54,71.49 87.33,70.84 89.03,69.70"/>
    </edge>
    <edge id=":J7_0" function="internal">
        <lane id=":J7_0_0" index="0" speed="4.27" length="3.61" shape="154.32,5.83 154.58,5.59 154.73,5.39 154.82,5.16 154.87,4.81"/>
        <lane id=":J7_0_1" index="1" speed="6.78" length="3.61" shape="156.39,8.26 157.18,7.56 157.63,6.96 157.88,6.26 158.05,5.21"/>
        <lane id=":J7_0_2" index="2" speed="8.58" length="3.61" shape="158.46,10.70 159.77,9.52 160.53,8.53 160.95,7.36 161.22,5.61"/>
    </edge>
    <edge id=":J8_0" function="internal">
        <lane id=":J8_0_0" index="0" speed="4.00" length="1.78" shape="166.88,-90.00 166.88,-90.46 166.76,-90.87 166.53,-91.23 166.18,-91.53"/>
        <lane id=":J8_0_1" index="1" speed="6.25" length="5.34" shape="170.05,-89.60 170.06,-90.99 169.71,-92.22 169.01,-93.29 167.95,-94.19"/>
        <lane id=":J8_0_2" index="2" speed="7.89" length="8.90" shape="173.23,-89.19 173.24,-91.52 172.66,-93.57 171.49,-95.35 169.73,-96.86"/>
    </edge>
    <edge id=":J9_0" function="internal">
        <lane id=":J9_0_0" index="0" speed="13.89" length="2.65" shape="90.10,-142.25 89.88,-142.39 89.72,-142.47 89.54,-142.50 89.28,-142.52"/>
        <lane id=":J9_0_1" index="1" speed="7.46" length="2.65" shape="91.87,-144.91 91.22,-145.34 90.72,-145.56 90.19,-145.67 89.41,-145.72"/>
        <lane id=":J9_0_2" index="2" speed="9.47" length="2.65" shape="93.65,-147.58 92.55,-148.28 91.73,-148.66 90.84,-148.84 89.55,-148.91"/>
    </edge>

    <edge id="e1" from="J4" to="J5" priority="-1">
        <lane id="e1_0" index="0" speed="13.89" length="90.62" shape="-86.28,-48.74 -39.77,29.03"/>
        <lane id="e1_1" index="1" speed="13.89" length="90.62" shape="-89.03,-47.10 -42.52,30.67"/>
        <lane id="e1_2" index="2" speed="13.89" length="90.62" shape="-91.78,-45.46 -45.27,32.32"/>
    </edge>
    <edge id="e2" from="J5" to="J6" priority="-1">
        <lane id="e2_0" index="0" speed="13.89" length="127.27" shape="-38.85,29.75 83.40,65.14"/>
        <lane id="e2_1" index="1" speed="13.89" length="127.27" shape="-39.74,32.82 82.51,68.21"/>
        <lane id="e2_2" index="2" speed="13.89" length="127.27" shape="-40.63,35.89 81.62,71.29"/>
    </edge>
    <edge id="e3" from="J6" to="J7" priority="-1">
        <lane id="e3_0" index="0" speed="13.89" length="91.12" shape="84.88,64.82 154.32,5.83"/>
        <lane id="e3_1" index="1" speed="13.89" length="91.12" shape="86.95,67.26 156.39,8.26"/>
        <lane id="e3_2" index="2" speed="13.89" length="91.12" shape="89.03,69.70 158.46,10.70"/>
    </edge>
    <edge id="e4" from="J7" to="J8" priority="-1">
        <lane id="e4_0" index="0" speed="13.89" length="95.56" shape="154.87,4.81 166.88,-90.00"/>
        <lane id="e4_1" index="1" speed="13.89" length="95.56" shape="158.05,5.21 170.05,-89.60"/>
        <lane id="e4_2" index="2" speed="13.89" length="95.56" shape="161.22,5.61 173.23,-89.19"/>
    </edge>
    <edge id="e5" from="J8" to="J9" priority="-1">
        <lane id="e5_0" index="0" speed="13.89" length="91.43" shape="166.18,-91.53 90.10,-142.25"/>
        <lane id="e5_1" index="1" speed="13.89" length="91.43" shape="167.95,-94.19 91.87,-144.91"/>
        <lane id="e5_2" index="2" speed="13.89" length="91.43" shape="169.73,-96.86 93.65,-147.58"/>
    </edge>
    <edge id="e6" from="J9" to="J10" priority="-1">
        <lane id="e6_0" index="0" speed="13.89" length="108.15" shape="89.28,-142.52 -18.78,-147.03"/>
        <lane id="e6_1" index="1" speed="13.89" length="108.15" shape="89.41,-145.72 -18.65,-150.23"/>
        <lane id="e6_2" index="2" speed="13.89" length="108.15" shape="89.55,-148.91 -18.51,-153.43"/>
    </edge>
    <edge id="e7" from="J10" to="J4" priority="-1">
        <lane id="e7_0" index="0" speed="13.89" length="99.21" shape="-20.13,-146.38 -78.94,-66.48"/>
        <lane id="e7_1" index="1" speed="13.89" length="99.21" shape="-22.71,-148.28 -81.52,-68.38"/>
        <lane id="e7_2" index="2" speed="13.89" length="99.21" shape="-25.29,-150.18 -84.09,-70.27"/>
    </edge>
    <edge id="e8" from="J4" to="J11" priority="-1">
        <lane id="e8_0" index="0" speed="13.89" length="103.19" shape="-76.09,-60.54 27.01,-56.19"/>
        <lane id="e8_1" index="1" speed="13.89" length="103.19" shape="-76.23,-57.35 26.87,-53.00"/>
        <lane id="e8_2" index="2" speed="13.89" length="103.19" shape="-76.36,-54.15 26.74,-49.80"/>
    </edge>

    <junction id="J10" type="priority" x="-23.55" y="-155.24" incLanes="e6_0 e6_1 e6_2" intLanes=":J10_0_0 :J10_0_1 :J10_0_2" shape="-18.85,-145.44 -18.45,-155.03 -21.62,-154.69 -23.03,-154.16 -24.33,-153.39 -25.51,-152.38 -26.58,-151.13">
        <request index="0" response="000" foes="000" cont="0"/>
        <request index="1" response="000" foes="000" cont="0"/>
        <request index="2" response="000" foes="000" cont="0"/>
    </junction>
    <junction id="J11" type="dead_end" x="26.67" y="-48.20" incLanes="e8_0 e8_1 e8_2" intLanes="" shape="27.07,-57.79 26.67,-48.20"/>
    <junction id="J4" type="priority" x="-98.44" y="-53.48" incLanes="e7_0 e7_1 e7_2" intLanes=":J4_0_0 :J4_0_1 :J4_0_2 :J4_3_0 :J4_3_1 :J4_3_2" shape="-93.15,-44.64 -84.91,-49.56 -84.88,-51.42 -83.82,-52.03 -82.05,-52.42 -79.59,-52.59 -76.43,-52.55 -76.02,-62.14 -77.98,-62.59 -78.43,-63.07 -78.52,-63.72 -78.26,-64.54 -77.65,-65.53 -85.38,-71.22 -89.23,-65.56 -92.05,-60.38 -93.85,-55.70 -94.64,-51.52 -94.40,-47.83">
        <request index="0" response="000000" foes="000000" cont="0"/>
        <request index="1" response="000000" foes="000000" cont="0"/>
        <request index="2" response="000000" foes="000000" cont="0"/>
        <request index="3" response="000000" foes="000000" cont="0"/>
        <request index="4" response="000000" foes="000000" cont="0"/>
        <request index="5" response="000000" foes="000000" cont="0"/>
    </junction>
    <junction id="J5" type="priority" x="-44.70" y="36.38" incLanes="e1_0 e1_1 e1_2" intLanes=":J5_0_0 :J5_0_1 :J5_0_2" shape="-41.07,37.43 -38.40,28.21 -46.64,33.14 -45.14,35.37 -44.44,36.05 -43.61,36.55 -42.53,36.98">
        <request index="0" response="000" foes="000" cont="0"/>
        <request index="1" response="000" foes="000" cont="0"/>
        <request index="2" response="000" foes="000" cont="0"/>
    </junction>
    <junction id="J6" type="priority" x="86.13" y="74.26" incLanes="e2_0 e2_1 e2_2" intLanes=":J6_0_0 :J6_0_1 :J6_0_2" shape="90.06,70.92 83.85,63.60 81.18,72.83 84.36,73.25 85.87,73.07 87.33,72.62 88.72,71.90">
        <request index="0" response="000" foes="000" cont="0"/>
        <request index="1" response="000" foes="000" cont="0"/>
        <request index="2" response="000" foes="000" cont="0"/>
    </junction>
    <junction id="J7" type="priority" x="162.34" y="9.51" incLanes="e3_0 e3_1 e3_2" intLanes=":J7_0_0 :J7_0_1 :J7_0_2" shape="162.81,5.81 153.28,4.61 159.50,11.92 161.44,10.11 161.98,9.32 162.34,8.43 162.60,7.31">
        <request index="0" response="000" foes="000" cont="0"/>
        <request index="1" response="000" foes="000" cont="0"/>
        <request index="2" response="000" foes="000" cont="0"/>
    </junction>
    <junction id="J8" type="priority" x="175.56" y="-94.89" incLanes="e4_0 e4_1 e4_2" intLanes=":J8_0_0 :J8_0_1 :J8_0_2" shape="170.61,-98.19 165.29,-90.20 174.81,-88.99 174.68,-92.64 174.14,-94.24 173.28,-95.70 172.11,-97.02">
        <request index="0" response="000" foes="000" cont="0"/>
        <request index="1" response="000" foes="000" cont="0"/>
        <request index="2" response="000" foes="000" cont="0"/>
    </junction>
    <junction id="J9" type="priority" x="92.30" y="-150.40" incLanes="e5_0 e5_1 e5_2" intLanes=":J9_0_0 :J9_0_1 :J9_0_2" shape="89.21,-140.92 94.54,-148.91 92.88,-149.94 92.24,-150.21 91.56,-150.37 90.73,-150.46 89.61,-150.51">
        <request index="0" response="000" foes="000" cont="0"/>
        <request index="1" response="000" foes="000" cont="0"/>
        <request index="2" response="000" foes="000" cont="0"/>
    </junction>

    <connection from="e1" to="e2" fromLane="0" toLane="0" via=":J5_0_0" dir="s" state="M"/>
    <connection from="e1" to="e2" fromLane="1" toLane="1" via=":J5_0_1" dir="s" state="M"/>
    <connection from="e1" to="e2" fromLane="2" toLane="2" via=":J5_0_2" dir="s" state="M"/>
    <connection from="e2" to="e3" fromLane="0" toLane="0" via=":J6_0_0" dir="r" state="M"/>
    <connection from="e2" to="e3" fromLane="1" toLane="1" via=":J6_0_1" dir="r" state="M"/>
    <connection from="e2" to="e3" fromLane="2" toLane="2" via=":J6_0_2" dir="r" state="M"/>
    <connection from="e3" to="e4" fromLane="0" toLane="0" via=":J7_0_0" dir="s" state="M"/>
    <connection from="e3" to="e4" fromLane="1" toLane="1" via=":J7_0_1" dir="s" state="M"/>
    <connection from="e3" to="e4" fromLane="2" toLane="2" via=":J7_0_2" dir="s" state="M"/>
    <connection from="e4" to="e5" fromLane="0" toLane="0" via=":J8_0_0" dir="r" state="M"/>
    <connection from="e4" to="e5" fromLane="1" toLane="1" via=":J8_0_1" dir="r" state="M"/>
    <connection from="e4" to="e5" fromLane="2" toLane="2" via=":J8_0_2" dir="r" state="M"/>
    <connection from="e5" to="e6" fromLane="0" toLane="0" via=":J9_0_0" dir="s" state="M"/>
    <connection from="e5" to="e6" fromLane="1" toLane="1" via=":J9_0_1" dir="s" state="M"/>
    <connection from="e5" to="e6" fromLane="2" toLane="2" via=":J9_0_2" dir="s" state="M"/>
    <connection from="e6" to="e7" fromLane="0" toLane="0" via=":J10_0_0" dir="r" state="M"/>
    <connection from="e6" to="e7" fromLane="1" toLane="1" via=":J10_0_1" dir="r" state="M"/>
    <connection from="e6" to="e7" fromLane="2" toLane="2" via=":J10_0_2" dir="r" state="M"/>
    <connection from="e7" to="e8" fromLane="0" toLane="0" via=":J4_0_0" dir="r" state="M"/>
    <connection from="e7" to="e8" fromLane="0" toLane="1" via=":J4_0_1" dir="r" state="M"/>
    <connection from="e7" to="e8" fromLane="0" toLane="2" via=":J4_0_2" dir="r" state="M"/>
    <connection from="e7" to="e1" fromLane="0" toLane="0" via=":J4_3_0" dir="R" state="M"/>
    <connection from="e7" to="e1" fromLane="1" toLane="1" via=":J4_3_1" dir="R" state="M"/>
    <connection from="e7" to="e1" fromLane="2" toLane="2" via=":J4_3_2" dir="R" state="M"/>

    <connection from=":J10_0" to="e7" fromLane="0" toLane="0" dir="r" state="M"/>
    <connection from=":J10_0" to="e7" fromLane="1" toLane="1" dir="r" state="M"/>
    <connection from=":J10_0" to="e7" fromLane="2" toLane="2" dir="r" state="M"/>
    <connection from=":J4_0" to="e8" fromLane="0" toLane="0" dir="r" state="M"/>
    <connection from=":J4_0" to="e8" fromLane="1" toLane="1" dir="r" state="M"/>
    <connection from=":J4_0" to="e8" fromLane="2" toLane="2" dir="r" state="M"/>
    <connection from=":J4_3" to="e1" fromLane="0" toLane="0" dir="R" state="M"/>
    <connection from=":J4_3" to="e1" fromLane="1" toLane="1" dir="R" state="M"/>
    <connection from=":J4_3" to="e1" fromLane="2" toLane="2" dir="R" state="M"/>
    <connection from=":J5_0" to="e2" fromLane="0" toLane="0" dir="s" state="M"/>
    <connection from=":J5_0" to="e2" fromLane="1" toLane="1" dir="s" state="M"/>
    <connection from=":J5_0" to="e2" fromLane="2" toLane="2" dir="s" state="M"/>
    <connection from=":J6_0" to="e3" fromLane="0" toLane="0" dir="r" state="M"/>
    <connection from=":J6_0" to="e3" fromLane="1" toLane="1" dir="r" state="M"/>
    <connection from=":J6_0" to="e3" fromLane="2" toLane="2" dir="r" state="M"/>
    <connection from=":J7_0" to="e4" fromLane="0" toLane="0" dir="s" state="M"/>
    <connection from=":J7_0" to="e4" fromLane="1" toLane="1" dir="s" state="M"/>
    <connection from=":J7_0" to="e4" fromLane="2" toLane="2" dir="s" state="M"/>
    <connection from=":J8_0" to="e5" fromLane="0" toLane="0" dir="r" state="M"/>
    <connection from=":J8_0" to="e5" fromLane="1" toLane="1" dir="r" state="M"/>
    <connection from=":J8_0" to="e5" fromLane="2" toLane="2" dir="r" state="M"/>
    <connection from=":J9_0" to="e6" fromLane="0" toLane="0" dir="s" state="M"/>
    <connection from=":J9_0" to="e6" fromLane="1" toLane="1" dir="s" state="M"/>
    <connection from=":J9_0" to="e6" fromLane="2" toLane="2" dir="s" state="M"/>

</net>
