<?xml version='1.0' encoding='UTF-8'?>
<configuration><input><net-file value="CampoAlegre.net.xml" /><route-files value="examples/carlavtypes.rou.xml" /></input><gui_only><gui-settings-file value="examples/viewsettings.xml" /></gui_only><num-clients value="1" /></configuration>