<?xml version="1.0" encoding="UTF-8"?>

<!-- generated on 2023-04-27 21:45:23 by Eclipse SUMO netedit Version 1.15.0
<configuration xmlns:xsi="http://www.w3.org/2001/XMLSchema-instance" xsi:noNamespaceSchemaLocation="http://sumo.dlr.de/xsd/netconvertConfiguration.xsd">

    <input>
        <sumo-net-file value="D:\tese\coop\campo.net.xml"/>
    </input>

    <output>
        <output-file value="D:\tese\coop\util\campo.net.xml"/>
    </output>

    <processing>
        <geometry.min-radius.fix.railways value="false"/>
        <geometry.max-grade.fix value="false"/>
        <offset.disable-normalization value="true"/>
        <lefthand value="0"/>
    </processing>

    <junctions>
        <no-turnarounds value="true"/>
        <junctions.corner-detail value="5"/>
        <junctions.limit-turn-speed value="5.50"/>
        <rectangular-lane-cut value="1"/>
    </junctions>

    <pedestrian>
        <walkingareas value="0"/>
    </pedestrian>

    <netedit>
        <SUMOConfig-output value="D:\tese\coop\Campo.sumocfg"/>
        <route-files value="D:\tese\coop\campo.rou.xml"/>
    </netedit>

</configuration>
-->

<net version="1.9" junctionCornerDetail="5" rectangularLaneCut="true" limitTurnSpeed="5.50" xmlns:xsi="http://www.w3.org/2001/XMLSchema-instance" xsi:noNamespaceSchemaLocation="http://sumo.dlr.de/xsd/net_file.xsd">

    <location netOffset="1.70,0.74" convBoundary="0.00,0.00,2075.51,1372.53" origBoundary="-5.77,-0.74,2073.82,1371.78" projParameter="!"/>

    <type id="bidirectional" priority="1" speed="1.39" disallow="pedestrian tram rail_urban rail rail_electric rail_fast ship" width="3.65"/>
    <type id="biking" priority="-1" speed="5.56" allow="bicycle" width="1.50"/>
    <type id="border" priority="0" speed="1.39" disallow="all" discard="1" width="0.10"/>
    <type id="driving" priority="1" speed="13.89" disallow="pedestrian tram rail_urban rail rail_electric rail_fast ship" width="3.65"/>
    <type id="entry" priority="1" speed="22.22" disallow="pedestrian tram rail_urban rail rail_electric rail_fast ship" width="3.65"/>
    <type id="exit" priority="1" speed="22.22" disallow="pedestrian tram rail_urban rail rail_electric rail_fast ship" width="3.65"/>
    <type id="median" priority="0" speed="1.39" disallow="all" discard="1" width="0.10"/>
    <type id="mwyEntry" priority="1" speed="22.22" allow="private emergency authority army vip passenger hov taxi bus coach delivery truck trailer motorcycle evehicle custom1 custom2" width="3.65"/>
    <type id="mwyExit" priority="1" speed="22.22" allow="private emergency authority army vip passenger hov taxi bus coach delivery truck trailer motorcycle evehicle custom1 custom2" width="3.65"/>
    <type id="none" priority="0" speed="1.39" disallow="all" discard="1" width="1.00"/>
    <type id="offRamp" priority="1" speed="22.22" allow="private emergency authority army vip passenger hov taxi bus coach delivery truck trailer motorcycle evehicle custom1 custom2" width="3.65"/>
    <type id="onRamp" priority="1" speed="22.22" allow="private emergency authority army vip passenger hov taxi bus coach delivery truck trailer motorcycle evehicle custom1 custom2" width="3.65"/>
    <type id="parking" priority="1" speed="1.39" disallow="pedestrian tram rail_urban rail rail_electric rail_fast ship" width="2.50"/>
    <type id="rail" priority="3" speed="33.33" allow="rail_urban rail rail_electric rail_fast" width="3.65"/>
    <type id="restricted" priority="0" speed="13.89" disallow="all" width="3.65"/>
    <type id="roadWorks" priority="0" speed="1.39" allow="authority" width="3.65"/>
    <type id="shoulder" priority="0" speed="1.39" disallow="all" discard="1" width="1.00"/>
    <type id="sidewalk" priority="-2" speed="2.78" allow="pedestrian" width="2.50"/>
    <type id="special1" priority="1" speed="22.22" allow="custom1" discard="1" width="3.65"/>
    <type id="special2" priority="1" speed="22.22" allow="custom2" discard="1" width="3.65"/>
    <type id="special3" priority="1" speed="22.22" allow="custom1 custom2" discard="1" width="3.65"/>
    <type id="stop" priority="1" speed="13.89" disallow="pedestrian tram rail_urban rail rail_electric rail_fast ship" width="3.65"/>
    <type id="tram" priority="2" speed="13.89" allow="tram" width="3.65"/>

    <edge id=":1_0" function="internal">
        <lane id=":1_0_0" index="0" disallow="pedestrian tram rail_urban rail rail_electric rail_fast ship" speed="13.89" length="15.71" width="6.00" shape="687.34,975.91 684.52,978.73 681.39,981.52 678.86,984.53 677.82,987.97">
            <param key="origId" value="1231_-1"/>
        </lane>
    </edge>
    <edge id=":1_1" function="internal">
        <lane id=":1_1_0" index="0" disallow="pedestrian tram rail_urban rail rail_electric rail_fast ship" speed="10.92" length="10.23" width="6.00" shape="687.34,975.91 682.63,980.40 679.22,981.92">
            <param key="origId" value="1232_-1"/>
        </lane>
    </edge>
    <edge id=":1_2" function="internal">
        <lane id=":1_2_0" index="0" disallow="pedestrian tram rail_urban rail rail_electric rail_fast ship" speed="5.00" length="3.55" width="6.00" shape="687.34,975.91 684.75,976.71 683.93,976.53">
            <param key="origId" value="1233_-1"/>
        </lane>
    </edge>
    <edge id=":1_9" function="internal">
        <lane id=":1_9_0" index="0" disallow="pedestrian tram rail_urban rail rail_electric rail_fast ship" speed="10.92" length="13.09" width="6.00" shape="679.22,981.92 677.62,982.63 672.32,982.63 666.72,980.39">
            <param key="origId" value="1232_-1"/>
        </lane>
    </edge>
    <edge id=":1_10" function="internal">
        <lane id=":1_10_0" index="0" disallow="pedestrian tram rail_urban rail rail_electric rail_fast ship" speed="5.00" length="5.21" width="6.00" shape="683.93,976.53 683.12,976.35 682.43,974.82 682.68,972.13">
            <param key="origId" value="1233_-1"/>
        </lane>
    </edge>
    <edge id=":1_3" function="internal">
        <lane id=":1_3_0" index="0" disallow="pedestrian tram rail_urban rail rail_electric rail_fast ship" speed="8.85" length="14.66" width="6.00" shape="669.77,975.22 673.22,976.56 676.53,976.50 679.68,975.02 682.68,972.13">
            <param key="origId" value="1234_-1"/>
        </lane>
    </edge>
    <edge id=":1_4" function="internal">
        <lane id=":1_4_0" index="0" disallow="pedestrian tram rail_urban rail rail_electric rail_fast ship" speed="10.93" length="15.83" width="6.00" shape="669.77,975.22 673.29,977.77 675.81,980.75 677.32,984.15 677.82,987.97">
            <param key="origId" value="1235_-1"/>
        </lane>
    </edge>
    <edge id=":1_5" function="internal">
        <lane id=":1_5_0" index="0" disallow="pedestrian tram rail_urban rail rail_electric rail_fast ship" speed="5.00" length="8.76" width="6.00" shape="669.77,975.22 670.94,977.66 670.83,979.33 669.42,980.24 666.72,980.39">
            <param key="origId" value="1236_-1"/>
        </lane>
    </edge>
    <edge id=":1_6" function="internal">
        <lane id=":1_6_0" index="0" disallow="pedestrian tram rail_urban rail rail_electric rail_fast ship" speed="8.38" length="9.36" width="6.00" shape="671.57,987.82 671.35,985.69 670.47,983.73 668.93,981.97 666.72,980.39">
            <param key="origId" value="1237_-1"/>
        </lane>
    </edge>
    <edge id=":1_7" function="internal">
        <lane id=":1_7_0" index="0" disallow="pedestrian tram rail_urban rail rail_electric rail_fast ship" speed="13.89" length="19.46" width="6.00" shape="671.57,987.82 672.97,983.81 676.04,979.56 679.65,975.51 682.68,972.13">
            <param key="origId" value="1238_-1"/>
        </lane>
    </edge>
    <edge id=":1_8" function="internal">
        <lane id=":1_8_0" index="0" disallow="pedestrian tram rail_urban rail rail_electric rail_fast ship" speed="5.10" length="4.22" width="6.00" shape="671.57,987.82 673.19,985.52 674.46,984.92">
            <param key="origId" value="1239_-1"/>
        </lane>
    </edge>
    <edge id=":1_11" function="internal">
        <lane id=":1_11_0" index="0" disallow="pedestrian tram rail_urban rail rail_electric rail_fast ship" speed="5.10" length="4.90" width="6.00" shape="674.46,984.92 674.77,984.78 676.31,985.59 677.82,987.97">
            <param key="origId" value="1239_-1"/>
        </lane>
    </edge>
    <edge id=":10_0" function="internal">
        <lane id=":10_0_0" index="0" disallow="pedestrian tram rail_urban rail rail_electric rail_fast ship" speed="9.22" length="13.73" width="6.00" shape="408.19,417.33 405.26,417.25 402.46,418.34 399.79,420.62 397.26,424.07">
            <param key="origId" value="1076_-1"/>
        </lane>
    </edge>
    <edge id=":10_1" function="internal">
        <lane id=":10_1_0" index="0" disallow="pedestrian tram rail_urban rail rail_electric rail_fast ship" speed="13.89" length="20.20" width="6.00" shape="408.19,417.33 403.77,416.22 398.44,414.73 393.13,413.15 388.78,411.75">
            <param key="origId" value="1077_-1"/>
        </lane>
    </edge>
    <edge id=":10_2" function="internal">
        <lane id=":10_2_0" index="0" disallow="pedestrian tram rail_urban rail rail_electric rail_fast ship" speed="5.00" length="3.50" width="6.00" shape="408.19,417.33 406.33,415.38 406.14,414.60">
            <param key="origId" value="1078_-1"/>
        </lane>
    </edge>
    <edge id=":10_9" function="internal">
        <lane id=":10_9_0" index="0" disallow="pedestrian tram rail_urban rail rail_electric rail_fast ship" speed="5.00" length="5.26" width="6.00" shape="406.14,414.60 405.93,413.75 406.99,412.45 409.51,411.48">
            <param key="origId" value="1078_-1"/>
        </lane>
    </edge>
    <edge id=":10_3" function="internal">
        <lane id=":10_3_0" index="0" disallow="pedestrian tram rail_urban rail rail_electric rail_fast ship" speed="13.89" length="19.57" width="6.00" shape="390.72,406.07 394.96,407.44 400.06,408.97 405.18,410.40 409.51,411.48">
            <param key="origId" value="1079_-1"/>
        </lane>
    </edge>
    <edge id=":10_4" function="internal">
        <lane id=":10_4_0" index="0" disallow="pedestrian tram rail_urban rail rail_electric rail_fast ship" speed="9.57" length="8.17" width="6.00" shape="390.72,406.07 396.57,409.05 397.54,410.32">
            <param key="origId" value="1080_-1"/>
        </lane>
    </edge>
    <edge id=":10_5" function="internal">
        <lane id=":10_5_0" index="0" disallow="pedestrian tram rail_urban rail rail_electric rail_fast ship" speed="5.00" length="3.42" width="6.00" shape="390.72,406.07 392.36,408.21 392.46,408.92">
            <param key="origId" value="1081_-1"/>
        </lane>
    </edge>
    <edge id=":10_10" function="internal">
        <lane id=":10_10_0" index="0" disallow="pedestrian tram rail_urban rail rail_electric rail_fast ship" speed="9.57" length="14.98" width="6.00" shape="397.54,410.32 399.61,413.04 399.84,418.05 397.26,424.07">
            <param key="origId" value="1080_-1"/>
        </lane>
    </edge>
    <edge id=":10_11" function="internal">
        <lane id=":10_11_0" index="0" disallow="pedestrian tram rail_urban rail rail_electric rail_fast ship" speed="5.00" length="5.35" width="6.00" shape="392.46,408.92 392.59,409.88 391.40,411.05 388.78,411.75">
            <param key="origId" value="1081_-1"/>
        </lane>
    </edge>
    <edge id=":10_6" function="internal">
        <lane id=":10_6_0" index="0" disallow="pedestrian tram rail_urban rail rail_electric rail_fast ship" speed="7.13" length="11.83" width="6.00" shape="392.14,420.95 393.45,417.87 393.33,415.31 391.78,413.27 388.78,411.75">
            <param key="origId" value="1082_-1"/>
        </lane>
    </edge>
    <edge id=":10_7" function="internal">
        <lane id=":10_7_0" index="0" disallow="pedestrian tram rail_urban rail rail_electric rail_fast ship" speed="11.27" length="21.23" width="6.00" shape="392.14,420.95 395.91,415.94 400.07,412.70 404.60,411.21 409.51,411.48">
            <param key="origId" value="1083_-1"/>
        </lane>
    </edge>
    <edge id=":10_8" function="internal">
        <lane id=":10_8_0" index="0" disallow="pedestrian tram rail_urban rail rail_electric rail_fast ship" speed="5.00" length="8.76" width="6.00" shape="392.14,420.95 394.59,419.81 396.26,419.95 397.15,421.37 397.26,424.07">
            <param key="origId" value="1084_-1"/>
        </lane>
    </edge>
    <edge id=":11_0" function="internal">
        <lane id=":11_0_0" index="0" disallow="pedestrian tram rail_urban rail rail_electric rail_fast ship" speed="5.00" length="8.76" width="6.00" shape="1.45,468.08 -1.21,467.59 -2.49,466.51 -2.39,464.84 -0.92,462.57">
            <param key="origId" value="1043_-1"/>
        </lane>
    </edge>
    <edge id=":12_0" function="internal">
        <lane id=":12_0_0" index="0" disallow="pedestrian tram rail_urban rail rail_electric rail_fast ship" speed="20.84" length="0.70" width="6.00" shape="1455.60,295.11 1454.95,295.39">
            <param key="origId" value="1052_-1"/>
        </lane>
    </edge>
    <edge id=":12_1" function="internal">
        <lane id=":12_1_0" index="0" disallow="pedestrian tram rail_urban rail rail_electric rail_fast ship" speed="20.84" length="0.23" width="6.00" shape="1452.87,289.75 1453.08,289.67">
            <param key="origId" value="1053_-1"/>
        </lane>
    </edge>
    <edge id=":15_0" function="internal">
        <lane id=":15_0_0" index="0" disallow="pedestrian tram rail_urban rail rail_electric rail_fast ship" speed="7.52" length="11.66" width="6.00" shape="614.74,420.14 613.49,417.15 611.61,415.29 609.10,414.56 605.97,414.97">
            <param key="origId" value="1224_-1"/>
            <param key="signalID" value="130 130 131 132"/>
        </lane>
    </edge>
    <edge id=":15_1" function="internal">
        <lane id=":15_1_0" index="0" disallow="pedestrian tram rail_urban rail rail_electric rail_fast ship" speed="11.20" length="27.57" width="6.00" shape="614.74,420.14 614.44,414.03 617.00,408.89 622.42,404.73 630.71,401.55">
            <param key="origId" value="1225_-1"/>
            <param key="signalID" value="130"/>
        </lane>
    </edge>
    <edge id=":15_2" function="internal">
        <lane id=":15_2_0" index="0" disallow="pedestrian tram rail_urban rail rail_electric rail_fast ship" speed="5.00" length="8.77" width="6.00" shape="614.74,420.14 615.58,417.57 616.82,416.44 618.47,416.76 620.52,418.52">
            <param key="origId" value="1226_-1"/>
            <param key="signalID" value="130"/>
        </lane>
    </edge>
    <edge id=":15_3" function="internal">
        <lane id=":15_3_0" index="0" disallow="pedestrian tram rail_urban rail rail_electric rail_fast ship" speed="9.22" length="18.02" width="6.00" shape="632.31,407.33 626.43,409.46 622.51,412.03 620.54,415.05 620.52,418.52">
            <param key="origId" value="1227_-1"/>
            <param key="signalID" value="131"/>
        </lane>
    </edge>
    <edge id=":15_4" function="internal">
        <lane id=":15_4_0" index="0" disallow="pedestrian tram rail_urban rail rail_electric rail_fast ship" speed="13.89" length="27.43" width="6.00" shape="632.31,407.33 605.97,414.97">
            <param key="origId" value="1228_-1"/>
            <param key="signalID" value="131"/>
        </lane>
    </edge>
    <edge id=":15_5" function="internal">
        <lane id=":15_5_0" index="0" disallow="pedestrian tram rail_urban rail rail_electric rail_fast ship" speed="13.89" length="27.46" width="6.00" shape="604.33,409.19 630.71,401.55">
            <param key="origId" value="1229_-1"/>
            <param key="signalID" value="132"/>
        </lane>
    </edge>
    <edge id=":15_6" function="internal">
        <lane id=":15_6_0" index="0" disallow="pedestrian tram rail_urban rail rail_electric rail_fast ship" speed="9.84" length="21.41" width="6.00" shape="604.33,409.19 610.15,408.42 614.79,409.72 618.25,413.08 620.52,418.52">
            <param key="origId" value="1230_-1"/>
            <param key="signalID" value="132"/>
        </lane>
    </edge>
    <edge id=":18_0" function="internal">
        <lane id=":18_0_0" index="0" disallow="pedestrian tram rail_urban rail rail_electric rail_fast ship" speed="7.49" length="11.14" width="6.00" shape="1323.11,340.46 1322.08,337.56 1320.38,335.65 1318.04,334.75 1315.04,334.85">
            <param key="origId" value="1048_-1"/>
        </lane>
    </edge>
    <edge id=":18_1" function="internal">
        <lane id=":18_1_0" index="0" disallow="pedestrian tram rail_urban rail rail_electric rail_fast ship" speed="8.72" length="16.28" width="6.00" shape="1323.11,340.46 1322.38,334.83 1322.83,330.61 1324.45,327.82 1327.26,326.44">
            <param key="origId" value="1049_-1"/>
        </lane>
    </edge>
    <edge id=":18_2" function="internal">
        <lane id=":18_2_0" index="0" disallow="pedestrian tram rail_urban rail rail_electric rail_fast ship" speed="13.89" length="13.61" width="6.00" shape="1328.42,332.32 1315.04,334.85">
            <param key="origId" value="1050_-1"/>
        </lane>
    </edge>
    <edge id=":18_3" function="internal">
        <lane id=":18_3_0" index="0" disallow="pedestrian tram rail_urban rail rail_electric rail_fast ship" speed="13.89" length="13.52" width="6.00" shape="1313.98,328.95 1327.26,326.44">
            <param key="origId" value="1051_-1"/>
        </lane>
    </edge>
    <edge id=":2_0" function="internal">
        <lane id=":2_0_0" index="0" disallow="pedestrian tram rail_urban rail rail_electric rail_fast ship" speed="13.89" length="42.41" width="6.00" shape="670.74,1030.42 671.56,988.02">
            <param key="origId" value="1117_-1"/>
        </lane>
    </edge>
    <edge id=":2_1" function="internal">
        <lane id=":2_1_0" index="0" disallow="pedestrian tram rail_urban rail rail_electric rail_fast ship" speed="13.89" length="10.27" width="6.00" shape="670.74,1030.42 672.53,1022.26 673.10,1020.44">
            <param key="origId" value="1118_-1"/>
        </lane>
    </edge>
    <edge id=":2_7" function="internal">
        <lane id=":2_7_0" index="0" disallow="pedestrian tram rail_urban rail rail_electric rail_fast ship" speed="13.89" length="34.82" width="6.00" shape="673.10,1020.44 676.75,1008.81 681.32,995.42 684.17,987.42">
            <param key="origId" value="1118_-1"/>
        </lane>
    </edge>
    <edge id=":2_2" function="internal">
        <lane id=":2_2_0" index="0" disallow="pedestrian tram rail_urban rail rail_electric rail_fast ship" speed="13.89" length="42.83" width="6.00" shape="689.80,989.50 687.01,997.14 682.56,1009.75 678.47,1022.42 676.74,1030.24">
            <param key="origId" value="1119_-1"/>
        </lane>
    </edge>
    <edge id=":2_3" function="internal">
        <lane id=":2_3_0" index="0" disallow="pedestrian tram rail_urban rail rail_electric rail_fast ship" speed="7.90" length="25.37" width="6.00" shape="689.80,989.50 685.40,994.72 679.17,996.15 673.71,993.88 671.56,988.02">
            <param key="origId" value="1120_-1"/>
        </lane>
    </edge>
    <edge id=":2_4" function="internal">
        <lane id=":2_4_0" index="0" disallow="pedestrian tram rail_urban rail rail_electric rail_fast ship" speed="6.97" length="18.52" width="6.00" shape="677.82,988.17 678.22,994.31 679.41,996.23 681.39,993.94 684.17,987.42">
            <param key="origId" value="1121_-1"/>
        </lane>
    </edge>
    <edge id=":2_5" function="internal">
        <lane id=":2_5_0" index="0" disallow="pedestrian tram rail_urban rail rail_electric rail_fast ship" speed="13.89" length="42.08" width="6.00" shape="677.82,988.17 676.74,1030.24">
            <param key="origId" value="1122_-1"/>
        </lane>
    </edge>
    <edge id=":2_6" function="internal">
        <lane id=":2_6_0" index="0" disallow="pedestrian tram rail_urban rail rail_electric rail_fast ship" speed="5.10" length="3.77" width="6.00" shape="677.82,988.17 676.20,990.48 675.34,990.89">
            <param key="origId" value="1123_-1"/>
        </lane>
    </edge>
    <edge id=":2_8" function="internal">
        <lane id=":2_8_0" index="0" disallow="pedestrian tram rail_urban rail rail_electric rail_fast ship" speed="5.10" length="5.36" width="6.00" shape="675.34,990.89 674.62,991.23 673.07,990.41 671.56,988.02">
            <param key="origId" value="1123_-1"/>
        </lane>
    </edge>
    <edge id=":20_0" function="internal">
        <lane id=":20_0_0" index="0" disallow="pedestrian tram rail_urban rail rail_electric rail_fast ship" speed="5.00" length="8.76" width="6.00" shape="1791.36,48.80 1794.00,48.23 1795.60,48.74 1796.15,50.32 1795.66,52.98"/>
    </edge>
    <edge id=":21_0" function="internal">
        <lane id=":21_0_0" index="0" disallow="pedestrian tram rail_urban rail rail_electric rail_fast ship" speed="5.00" length="8.76" width="6.00" shape="361.41,498.94 359.26,500.58 357.59,500.80 356.42,499.60 355.74,496.98">
            <param key="origId" value="1208_-1"/>
        </lane>
    </edge>
    <edge id=":22_0" function="internal">
        <lane id=":22_0_0" index="0" disallow="pedestrian tram rail_urban rail rail_electric rail_fast ship" speed="5.00" length="8.76" width="6.00" shape="1596.32,241.33 1593.72,240.60 1592.55,239.40 1592.80,237.75 1594.48,235.63"/>
    </edge>
    <edge id=":23_0" function="internal">
        <lane id=":23_0_0" index="0" disallow="pedestrian tram rail_urban rail rail_electric rail_fast ship" speed="9.40" length="14.51" width="6.00" shape="1650.73,228.83 1648.31,226.81 1645.26,225.89 1641.58,226.06 1637.28,227.34">
            <param key="origId" value="1134_-1"/>
        </lane>
    </edge>
    <edge id=":23_1" function="internal">
        <lane id=":23_1_0" index="0" disallow="pedestrian tram rail_urban rail rail_electric rail_fast ship" speed="13.89" length="20.95" width="6.00" shape="1650.73,228.83 1637.50,212.58">
            <param key="origId" value="1135_-1"/>
        </lane>
    </edge>
    <edge id=":23_2" function="internal">
        <lane id=":23_2_0" index="0" disallow="pedestrian tram rail_urban rail rail_electric rail_fast ship" speed="9.59" length="7.93" width="6.00" shape="1650.73,228.83 1648.70,224.51 1648.52,221.35">
            <param key="origId" value="1136_-1"/>
        </lane>
    </edge>
    <edge id=":23_14" function="internal">
        <lane id=":23_14_0" index="0" disallow="pedestrian tram rail_urban rail rail_electric rail_fast ship" speed="9.59" length="11.98" width="6.00" shape="1648.52,221.35 1648.40,219.34 1649.72,214.33 1652.55,210.48">
            <param key="origId" value="1136_-1"/>
        </lane>
    </edge>
    <edge id=":23_3" function="internal">
        <lane id=":23_3_0" index="0" disallow="pedestrian tram rail_urban rail rail_electric rail_fast ship" speed="7.48" length="11.36" width="6.00" shape="1656.37,215.10 1654.26,217.41 1653.39,219.83 1653.76,222.37 1655.37,225.01">
            <param key="origId" value="1137_-1"/>
        </lane>
    </edge>
    <edge id=":23_4" function="internal">
        <lane id=":23_4_0" index="0" disallow="pedestrian tram rail_urban rail rail_electric rail_fast ship" speed="13.89" length="22.72" width="6.00" shape="1656.37,215.10 1652.41,218.10 1647.12,221.72 1641.68,225.10 1637.28,227.34">
            <param key="origId" value="1138_-1"/>
        </lane>
    </edge>
    <edge id=":23_5" function="internal">
        <lane id=":23_5_0" index="0" disallow="pedestrian tram rail_urban rail rail_electric rail_fast ship" speed="9.74" length="20.55" width="6.00" shape="1656.37,215.10 1651.93,217.10 1646.62,217.18 1641.48,215.60 1637.50,212.58">
            <param key="origId" value="1139_-1"/>
        </lane>
    </edge>
    <edge id=":23_6" function="internal">
        <lane id=":23_6_0" index="0" disallow="pedestrian tram rail_urban rail rail_electric rail_fast ship" speed="5.00" length="8.76" width="6.00" shape="1656.37,215.10 1653.68,215.38 1652.15,214.70 1651.77,213.06 1652.55,210.48">
            <param key="origId" value="1140_-1"/>
        </lane>
    </edge>
    <edge id=":23_7" function="internal">
        <lane id=":23_7_0" index="0" disallow="pedestrian tram rail_urban rail rail_electric rail_fast ship" speed="7.68" length="12.04" width="6.00" shape="1642.11,208.74 1644.68,211.15 1647.28,212.24 1649.90,212.02 1652.55,210.48">
            <param key="origId" value="1141_-1"/>
        </lane>
    </edge>
    <edge id=":23_8" function="internal">
        <lane id=":23_8_0" index="0" disallow="pedestrian tram rail_urban rail rail_electric rail_fast ship" speed="13.89" length="20.99" width="6.00" shape="1642.11,208.74 1655.37,225.01">
            <param key="origId" value="1142_-1"/>
        </lane>
    </edge>
    <edge id=":23_9" function="internal">
        <lane id=":23_9_0" index="0" disallow="pedestrian tram rail_urban rail rail_electric rail_fast ship" speed="8.95" length="7.11" width="6.00" shape="1642.11,208.74 1643.92,213.39 1643.75,215.50">
            <param key="origId" value="1143_-1"/>
        </lane>
    </edge>
    <edge id=":23_10" function="internal">
        <lane id=":23_10_0" index="0" disallow="pedestrian tram rail_urban rail rail_electric rail_fast ship" speed="5.00" length="3.48" width="6.00" shape="1642.11,208.74 1642.40,211.43 1642.09,212.14">
            <param key="origId" value="1144_-1"/>
        </lane>
    </edge>
    <edge id=":23_15" function="internal">
        <lane id=":23_15_0" index="0" disallow="pedestrian tram rail_urban rail rail_electric rail_fast ship" speed="8.95" length="14.15" width="6.00" shape="1643.75,215.50 1643.47,219.00 1641.12,224.13 1637.28,227.34">
            <param key="origId" value="1143_-1"/>
        </lane>
    </edge>
    <edge id=":23_16" function="internal">
        <lane id=":23_16_0" index="0" disallow="pedestrian tram rail_urban rail rail_electric rail_fast ship" speed="5.00" length="5.28" width="6.00" shape="1642.09,212.14 1641.73,212.96 1640.10,213.35 1637.50,212.58">
            <param key="origId" value="1144_-1"/>
        </lane>
    </edge>
    <edge id=":23_11" function="internal">
        <lane id=":23_11_0" index="0" disallow="pedestrian tram rail_urban rail rail_electric rail_fast ship" speed="6.95" length="11.86" width="6.00" shape="1635.08,221.75 1638.07,220.06 1639.47,217.96 1639.28,215.47 1637.50,212.58">
            <param key="origId" value="1145_-1"/>
        </lane>
    </edge>
    <edge id=":23_12" function="internal">
        <lane id=":23_12_0" index="0" disallow="pedestrian tram rail_urban rail rail_electric rail_fast ship" speed="13.89" length="20.85" width="6.00" shape="1635.08,221.75 1639.23,219.67 1644.11,216.62 1648.85,213.32 1652.55,210.48">
            <param key="origId" value="1146_-1"/>
        </lane>
    </edge>
    <edge id=":23_13" function="internal">
        <lane id=":23_13_0" index="0" disallow="pedestrian tram rail_urban rail rail_electric rail_fast ship" speed="11.26" length="21.47" width="6.00" shape="1635.08,221.75 1640.44,220.60 1646.30,220.85 1651.61,222.36 1655.37,225.01">
            <param key="origId" value="1147_-1"/>
        </lane>
    </edge>
    <edge id=":24_0" function="internal">
        <lane id=":24_0_0" index="0" disallow="pedestrian tram rail_urban rail rail_electric rail_fast ship" speed="7.49" length="11.33" width="6.00" shape="1138.84,1091.78 1137.44,1088.98 1135.50,1087.29 1133.01,1086.72 1129.98,1087.25">
            <param key="origId" value="1101_-1"/>
        </lane>
    </edge>
    <edge id=":24_1" function="internal">
        <lane id=":24_1_0" index="0" disallow="pedestrian tram rail_urban rail rail_electric rail_fast ship" speed="7.94" length="7.89" width="6.00" shape="1138.84,1091.78 1137.74,1087.48 1137.68,1084.15 1137.72,1084.04">
            <param key="origId" value="1102_-1"/>
        </lane>
    </edge>
    <edge id=":24_3" function="internal">
        <lane id=":24_3_0" index="0" disallow="pedestrian tram rail_urban rail rail_electric rail_fast ship" speed="7.94" length="4.85" width="6.00" shape="1137.72,1084.04 1138.63,1081.79 1140.60,1080.39">
            <param key="origId" value="1102_-1"/>
        </lane>
    </edge>
    <edge id=":24_2" function="internal">
        <lane id=":24_2_0" index="0" disallow="pedestrian tram rail_urban rail rail_electric rail_fast ship" speed="13.89" length="12.62" width="6.00" shape="1128.10,1081.55 1131.40,1080.95 1134.37,1081.03 1137.34,1081.08 1140.60,1080.39">
            <param key="origId" value="1103_-1"/>
        </lane>
    </edge>
    <edge id=":25_0" function="internal">
        <lane id=":25_0_0" index="0" disallow="pedestrian tram rail_urban rail rail_electric rail_fast ship" speed="7.59" length="12.03" width="6.00" shape="1146.55,1070.15 1148.11,1073.05 1150.22,1074.72 1152.90,1075.16 1156.14,1074.37">
            <param key="origId" value="1104_-1"/>
        </lane>
    </edge>
    <edge id=":25_1" function="internal">
        <lane id=":25_1_0" index="0" disallow="pedestrian tram rail_urban rail rail_electric rail_fast ship" speed="6.73" length="8.79" width="6.00" shape="1140.79,1080.32 1141.81,1079.44 1142.17,1077.79 1141.87,1075.37 1140.91,1072.19">
            <param key="origId" value="1105_-1"/>
        </lane>
    </edge>
    <edge id=":25_2" function="internal">
        <lane id=":25_2_0" index="0" disallow="pedestrian tram rail_urban rail rail_electric rail_fast ship" speed="13.89" length="16.46" width="6.00" shape="1140.79,1080.32 1156.14,1074.37">
            <param key="origId" value="1106_-1"/>
        </lane>
    </edge>
    <edge id=":26_0" function="internal">
        <lane id=":26_0_0" index="0" disallow="pedestrian tram rail_urban rail rail_electric rail_fast ship" speed="5.00" length="8.76" width="6.00" shape="1715.22,158.76 1717.91,158.49 1719.45,159.17 1719.82,160.80 1719.04,163.39">
            <param key="origId" value="1132_-1"/>
        </lane>
    </edge>
    <edge id=":27_0" function="internal">